* Spice generated by MemoryCanvas
* Version: SDT_MC_15.00.02
* Fri Jun 14 12:11:55 EDT 2019

*.GLOBAL bulk!
*.GLOBAL bulk!

.SUBCKT sxmodel a b
.ENDS

.SUBCKT d_avtnfet_bc d g s x b
.ENDS

.SUBCKT d_avtanfet_bc d g s x b
.ENDS

.SUBCKT d_avtmnfet_bc d g s x b
.ENDS

.SUBCKT d_tonfet_bc d g s x b
.ENDS

.SUBCKT d_tohvdnfet_bc d g s x b
.ENDS

.SUBCKT d_tomnfet_bc d g s x b
.ENDS

.SUBCKT d_tolnfet_bc d g s x b
.ENDS

.SUBCKT d_toxlnfet_bc d g s x b
.ENDS

.SUBCKT d_avtpfet_bc d g s x b
.ENDS

.SUBCKT d_avtapfet_bc d g s x b
.ENDS

.SUBCKT d_avtmpfet_bc d g s x b
.ENDS

.SUBCKT d_topfet_bc d g s x b
.ENDS

.SUBCKT d_tohvdpfet_bc d g s x b
.ENDS

.SUBCKT d_tompfet_bc d g s x b
.ENDS

.SUBCKT d_tolpfet_bc d g s x b
.ENDS

.SUBCKT d_toxlpfet_bc d g s x b
.ENDS

.SUBCKT d_nfett d g s x t
.ENDS

.SUBCKT d_hvtnfett d g s x t
.ENDS

.SUBCKT d_svtnfett d g s x t
.ENDS

.SUBCKT d_uvtnfett d g s x t
.ENDS

.SUBCKT d_avtnfett d g s x t
.ENDS

.SUBCKT d_tonfett d g s x t
.ENDS

.SUBCKT d_pfett d g s x t
.ENDS

.SUBCKT d_hvtpfett d g s x t
.ENDS

.SUBCKT d_svtpfett d g s x t
.ENDS

.SUBCKT d_uvtpfett d g s x t
.ENDS

.SUBCKT d_avtpfett d g s x t
.ENDS

.SUBCKT d_topfett d g s x t
.ENDS

.SUBCKT d_todiode_soi a c g x
.ENDS

.SUBCKT d_todiode_esd pd nd gate sx
.ENDS

.SUBCKT d_sbdiode_esd pd nd sx
.ENDS

.SUBCKT bitieres in x
.ENDS

.SUBCKT fuse in out
.ENDS

.SUBCKT singlecpw va vb vshield
.ENDS

.SUBCKT coupledcpw va1 va2 vb1 vb2 vshield
.ENDS

.SUBCKT singlewire va vb vshield
.ENDS

.SUBCKT coupledwires va1 va2 vb1 vb2 vshield
.ENDS

.SUBCKT symindp outpr outse ct ref
.ENDS

.SUBCKT d_esdscr_sblk pd nb pb nd sx
.ENDS

.SUBCKT d_esdbdscr pd nd sx
.ENDS  

.SUBCKT bondpad in gp x
.ENDS

.SUBCKT indr in out ref
.ENDS

.SUBCKT indrp in out ref
.ENDS

.SUBCKT symindr outpr outse ct ref
.ENDS

.SUBCKT symindrp outpr outse ct ref
.ENDS

.SUBCKT rf_avtnfet_bc d g s x b
.ENDS

.SUBCKT rf_tonfet_bc d g s x b
.ENDS

.SUBCKT rf_nfett d g s x t
.ENDS

.SUBCKT rf_tonfett d g s x t
.ENDS

.SUBCKT rf_pfett d g s x t
.ENDS

.SUBCKT rf_topfett d g s x t
.ENDS

.SUBCKT esdnsh_bc_base d g s b
.ENDS

.SUBCKT bendm va vb vshield
.ENDS

.SUBCKT gapm ga gb vshield
.ENDS

.SUBCKT openm vopen vshield
.ENDS

.SUBCKT shortm vshort vshield
.ENDS

.SUBCKT stepm stepa stepb vshield
.ENDS

.SUBCKT teem va vb vc vshield
.ENDS

.SUBCKT taperm ta tb vshield
.ENDS

.SUBCKT radialstubm rsa vshield
.ENDS

.SUBCKT red_gctl BPUI CSH_LD CSH_RR CSH_YS[0] CSH_YS[1] CSH_YS[2] CSH_YS[3] EN 
+ ENB GRST PWR QT[2] QT[3] QT[4] QT[5] QT[6] QT[7] QT[8] QT[9] QT[10] QT[11] 
+ QT[12] QT[13] RMO[0] RMO[1] RMO[2] RWOUT SPUI T1EN VSB[1] VSB[2] VSB[3] 
+ VSB[4] WMO[0] WMO[1] WMO[2] ZRR ag_ctrl
*.PININFO GRST:I CSH_LD:O CSH_RR:O CSH_YS[0]:O CSH_YS[1]:O CSH_YS[2]:O 
*.PININFO CSH_YS[3]:O EN:O ENB:O QT[2]:O QT[3]:O QT[4]:O QT[5]:O QT[6]:O 
*.PININFO QT[7]:O QT[8]:O QT[9]:O QT[10]:O QT[11]:O QT[12]:O QT[13]:O RMO[0]:O 
*.PININFO RMO[1]:O RMO[2]:O RWOUT:O T1EN:O WMO[0]:O WMO[1]:O WMO[2]:O ZRR:O 
*.PININFO BPUI:B PWR:B SPUI:B VSB[1]:B VSB[2]:B VSB[3]:B VSB[4]:B ag_ctrl:B
.ENDS

.SUBCKT pch_svtx B D G S m=1
*.PININFO B:B D:B G:B S:B
MP1 D G S bulk! d_hvtpfet m=1 l=40n w=w nf=nf par=1 gcon=1 optNum=0 
+ diffL=119.00n diffM=150.0n diffR=119.00n composite=0 local_sigma=0 
+ pu0mult=1e35 pla=0.0 pcpitch=1 pvta=0 plnest=1 plorient=1 pld200=1 
+ pre_layout_local=-1 pdevdops=1 pdevlgeos=1 pdevwgeos=1 nrs=7.5e-08/w 
+ nrd=7.5e-08/w
.ENDS

.SUBCKT nch_svtx B D G S m=1
*.PININFO B:B D:B G:B S:B
MN0 D G S bulk! d_hvtnfet m=1 l=40n w=w nf=nf par=1 gcon=1 optNum=0 
+ diffL=119.00n diffM=150.0n diffR=119.00n composite=0 local_sigma=0 
+ pu0mult=1e35 pla=0.0 pcpitch=1 pvta=0 plnest=1 plorient=1 pld200=1 
+ pre_layout_local=-1 pdevdops=1 pdevlgeos=1 pdevwgeos=1 nrs=7.5e-08/w 
+ nrd=7.5e-08/w
.ENDS

.SUBCKT inv_svtx G Gb IN OUT P Pb
*.PININFO IN:I OUT:O G:B Gb:B P:B Pb:B
XI7 Pb P IN OUT / pch_svtx nf=1 w=p_w m=pm
XI4 Gb OUT IN G / nch_svtx nf=1 w=n_w m=nm
.ENDS

.SUBCKT nch B D G S m=1
*.PININFO B:B D:B G:B S:B
MN0 D G S bulk! d_hvtnfet m=1 l=40n w=w nf=nf par=1 gcon=1 optNum=0 
+ diffL=119.00n diffM=150.0n diffR=119.00n composite=0 local_sigma=0 
+ pu0mult=1e35 pla=0.0 pcpitch=1 pvta=0 plnest=1 plorient=1 pld200=1 
+ pre_layout_local=-1 pdevdops=1 pdevlgeos=1 pdevwgeos=1 nrs=7.5e-08/w 
+ nrd=7.5e-08/w
.ENDS

.SUBCKT pch B D G S m=1
*.PININFO B:B D:B G:B S:B
MP0 D G S bulk! d_hvtpfet m=1 l=40n w=w nf=nf par=1 gcon=1 optNum=0 
+ diffL=119.00n diffM=150.0n diffR=119.00n composite=0 local_sigma=0 
+ pu0mult=1e35 pla=0.0 pcpitch=1 pvta=0 plnest=1 plorient=1 pld200=1 
+ pre_layout_local=-1 pdevdops=1 pdevlgeos=1 pdevwgeos=1 nrs=7.5e-08/w 
+ nrd=7.5e-08/w
.ENDS

.SUBCKT nand2 A B G Gb P Pb Y
*.PININFO A:I B:I Y:O G:B Gb:B P:B Pb:B
XN0 Gb Y A net10 / nch nf=1 w=n_w m=nm
XN1 Gb net10 B G / nch nf=1 w=n_w m=nm
XP0 Pb P A Y / pch nf=1 w=p_w m=pm
XP1 Pb P B Y / pch nf=1 w=p_w m=pm
.ENDS

.SUBCKT mux21 A0 A1 EN ENB G Gb P Pb Y
*.PININFO A0:I A1:I EN:I ENB:I G:B Gb:B P:B Pb:B Y:B
XI27 net019 net018 G Gb P Pb Y / nand2 pm=1 p_w=360n nm=1 n_w=360n
XI198 A1 EN G Gb P Pb net018 / nand2 pm=1 p_w=240n nm=1 n_w=240n
XI36 A0 ENB G Gb P Pb net019 / nand2 pm=1 p_w=240n nm=1 n_w=240n
.ENDS

.SUBCKT ant_diode D S m=1
*.PININFO D:B S:B
MN0 D S S bulk! d_nfet m=1 l=40n w=w nf=nf par=1 gcon=1 optNum=0 diffL=119.00n 
+ diffM=150.0n diffR=119.00n composite=0 local_sigma=0 pu0mult=1e35 pla=0 
+ pcpitch=1 pvta=0 plnest=1 plorient=1 pld200=1 pre_layout_local=-1 pdevdops=1 
+ pdevlgeos=1 pdevwgeos=1 nrs=7.5e-08/w nrd=7.5e-08/w
.ENDS

.SUBCKT pch_svt B D G S m=1
*.PININFO B:B D:B G:B S:B
MP1 D G S bulk! d_hvtpfet m=1 l=40n w=w nf=nf par=1 gcon=1 optNum=0 
+ diffL=119.00n diffM=150.0n diffR=119.00n composite=0 local_sigma=0 
+ pu0mult=1e35 pla=0.0 pcpitch=1 pvta=0 plnest=1 plorient=1 pld200=1 
+ pre_layout_local=-1 pdevdops=1 pdevlgeos=1 pdevwgeos=1 nrs=7.5e-08/w 
+ nrd=7.5e-08/w
.ENDS

.SUBCKT nch_svt B D G S m=1
*.PININFO B:B D:B G:B S:B
MN0 D G S bulk! d_hvtnfet m=1 l=40n w=w nf=nf par=1 gcon=1 optNum=0 
+ diffL=119.00n diffM=150.0n diffR=119.00n composite=0 local_sigma=0 
+ pu0mult=1e35 pla=0.0 pcpitch=1 pvta=0 plnest=1 plorient=1 pld200=1 
+ pre_layout_local=-1 pdevdops=1 pdevlgeos=1 pdevwgeos=1 nrs=7.5e-08/w 
+ nrd=7.5e-08/w
.ENDS

.SUBCKT tri_svt A EN ENB G Gb P Pb Y
*.PININFO A:I EN:I ENB:I G:B Gb:B P:B Pb:B Y:B
XP0 Pb net13 ENB Y / pch_svt nf=1 w=p_w m=pm
XI12 Pb P A net13 / pch_svt nf=1 w=p_w m=pm
XN0 Gb Y EN net12 / nch_svt nf=1 w=n_w m=nm
XN1 Gb net12 A G / nch_svt nf=1 w=n_w m=nm
.ENDS

.SUBCKT inv_svt G Gb IN OUT P Pb
*.PININFO IN:I OUT:O G:B Gb:B P:B Pb:B
XI10 Pb P IN OUT / pch_svt nf=1 w=p_w m=pm
XI4 Gb OUT IN G / nch_svt nf=1 w=n_w m=nm
.ENDS

.SUBCKT globlat A CB CT PWR QB QT VDDP VSS
*.PININFO A:I CB:I CT:I QB:O QT:O PWR:B VDDP:B VSS:B
XI16 VDDP PWR QT net032 / pch nf=1 w=240n m=1
XI17 VDDP net032 CT z1 / pch nf=1 w=240n m=1
XI21 A CT CB VSS VSS PWR VDDP z1 / tri_svt nm=2 n_w=240n pm=1 p_w=800n
XI14 VSS VSS z1 QT PWR VDDP / inv_svt nm=2 n_w=240n pm=2 p_w=400n
XI15 VSS VSS QT QB PWR VDDP / inv_svt nm=2 n_w=240n pm=1 p_w=800n
XI18 VSS z1 CB net023 / nch nf=1 w=240n m=1
XI19 VSS net023 QT VSS / nch nf=1 w=240n m=1
.ENDS

.SUBCKT pch_lvtx B D G S m=1
*.PININFO B:B D:B G:B S:B
MN0 D G S bulk! d_pfet m=1 l=40n w=w nf=nf par=1 gcon=1 optNum=0 diffL=119.00n 
+ diffM=150.0n diffR=119.00n composite=0 local_sigma=0 pu0mult=1e35 pla=0 
+ pcpitch=1 pvta=0 plnest=1 plorient=1 pld200=1 pre_layout_local=-1 pdevdops=1 
+ pdevlgeos=1 pdevwgeos=1 nrs=7.5e-08/w nrd=7.5e-08/w
.ENDS

.SUBCKT nch_lvtx B D G S m=1
*.PININFO B:B D:B G:B S:B
MN0 D G S bulk! d_nfet m=1 l=40n w=w nf=nf par=1 gcon=1 optNum=0 diffL=119.00n 
+ diffM=150.0n diffR=119.00n composite=0 local_sigma=0 pu0mult=1e35 pla=0 
+ pcpitch=1 pvta=0 plnest=1 plorient=1 pld200=1 pre_layout_local=-1 pdevdops=1 
+ pdevlgeos=1 pdevwgeos=1 nrs=7.5e-08/w nrd=7.5e-08/w
.ENDS

.SUBCKT inv_lvtx G Gb IN OUT P Pb
*.PININFO IN:I OUT:O G:B Gb:B P:B Pb:B
XI7 Pb P IN OUT / pch_lvtx nf=1 w=p_w m=pm
XI4 Gb OUT IN G / nch_lvtx nf=1 w=n_w m=nm
.ENDS

.SUBCKT gio BADIO BWM D LBWM LBWMB LCLKIO LDB LD PREOUTQ PWR Q SWT TBWM TD TE VDDA VNW 
+ VSS
*.PININFO BWM:I D:I TBWM:I TD:I Q:O BADIO:B LBWM:B LCLKIO:B LDB:B PREOUTQ:B 
*.PININFO PWR:B SWT:B TE:B VDDA:B VNW:B VSS:B
XI194 VSS VSS TE NTE PWR VNW / inv_svtx nm=1 n_w=480n pm=1 p_w=720n
XI215 VSS VSS QB Q PWR VNW / inv_svtx nm=1 n_w=480n pm=1 p_w=800n
XI214 VSS VSS PREOUTQ PRQB PWR VNW / inv_svtx nm=1 n_w=480n pm=1 p_w=720n
XI203 VSS VSS SWT net035 PWR VNW / inv_svtx nm=1 n_w=240n pm=1 p_w=360n
XI188 D TD TE NTE VSS VSS PWR VNW MD / mux21
XI201 LQB LDB SWT net035 VSS VSS PWR VNW QB / mux21
XI196 BWM TBWM TE NTE VSS VSS PWR VNW MBW / mux21
XD1 TD VSS / ant_diode nf=1 w=240nm m=1
XD6 TBWM VSS / ant_diode nf=1 w=240nm m=1
XD5 D VSS / ant_diode nf=1 w=240nm m=1
XD8 BWM VSS / ant_diode nf=1 w=240nm m=1
XD9 BADIO VSS / ant_diode nf=1 w=240nm m=1
XI39 MD CT CB PWR LDB LD VNW VSS / globlat
XI43 MBW CT CB PWR LBWMB LBWM VNW VSS / globlat
XI202 PRQB CT CB PWR net055 LQB VNW VSS / globlat
XI192 VSS VSS CB CT PWR VNW / inv_lvtx nm=1 n_w=480n pm=1 p_w=720n
XI149 VSS VSS LCLKIO CB PWR VNW / inv_lvtx nm=1 n_w=480n pm=1 p_w=720n
.ENDS

.SUBCKT gio2 BADIO BWM D LBWM LBWMB LCLKIO LDB LD PREOUTQ PWR Q SWT TBWM TD TE VDDA VNW 
+ VSS
*.PININFO BWM:I D:I TBWM:I TD:I Q:O BADIO:B LBWM:B LCLKIO:B LDB:B PREOUTQ:B 
*.PININFO PWR:B SWT:B TE:B VDDA:B VNW:B VSS:B
XXGIO BADIO BWM D LBWM LBWMB LCLKIO LDB LD PREOUTQ PWR Q SWT TBWM TD TE VDDA VNW VSS / 
+ gio
.ENDS

.SUBCKT gio_edge LCLKIO PWR SWT TE VDDA VNW VSS
*.PININFO LCLKIO:B PWR:B SWT:B TE:B VDDA:B VNW:B VSS:B
.ENDS

.SUBCKT nch_lvt B D G S m=1
*.PININFO B:B D:B G:B S:B
MN0 D G S bulk! d_nfet m=1 l=40n w=w nf=nf par=1 gcon=1 optNum=0 diffL=119.00n 
+ diffM=150.0n diffR=119.00n composite=0 local_sigma=0 pu0mult=1e35 pla=0 
+ pcpitch=1 pvta=0 plnest=1 plorient=1 pld200=1 pre_layout_local=-1 pdevdops=1 
+ pdevlgeos=1 pdevwgeos=1 nrs=7.5e-08/w nrd=7.5e-08/w
.ENDS

.SUBCKT pch_lvt B D G S m=1
*.PININFO B:B D:B G:B S:B
MP0 D G S bulk! d_pfet m=1 l=40n w=w nf=nf par=1 gcon=1 optNum=0 diffL=119.00n 
+ diffM=150.0n diffR=119.00n composite=0 local_sigma=0 pu0mult=1e35 pla=0 
+ pcpitch=1 pvta=0 plnest=1 plorient=1 pld200=1 pre_layout_local=-1 pdevdops=1 
+ pdevlgeos=1 pdevwgeos=1 nrs=7.5e-08/w nrd=7.5e-08/w
.ENDS

.SUBCKT txgate_lvtx E EB Gb IN OUT Pb
*.PININFO E:I EB:I Gb:B IN:B OUT:B Pb:B
XN0 Gb IN E OUT / nch_lvt nf=1 w=n_w m=nm
XP0 Pb OUT EB IN / pch_lvt nf=1 w=p_w m=pm
.ENDS

.SUBCKT inv G Gb IN OUT P Pb
*.PININFO IN:I OUT:O G:B Gb:B P:B Pb:B
XN0 Gb OUT IN G / nch nf=1 w=n_w m=nm
XP0 Pb P IN OUT / pch nf=1 w=p_w m=pm
.ENDS

.SUBCKT red_gio BADIO BWBR0 BWBR1 DBR0 DBR1 GBW GD LBWM LDB PREOUT PREOUTQ 
+ PREOUTS PWR RPFEED[0] RPFEED[1] RPIN RPOUT VDDA VNW VSS
*.PININFO GBW:O GD:O PREOUTQ:O BADIO:B BWBR0:B BWBR1:B DBR0:B DBR1:B LBWM:B 
*.PININFO LDB:B PREOUT:B PREOUTS:B PWR:B RPFEED[0]:B RPFEED[1]:B RPIN:B 
*.PININFO RPOUT:B VDDA:B VNW:B VSS:B
XI166 RED REDB VSS BWBR1 LBWM VNW / txgate_lvtx pm=2 p_w=360n nm=2 n_w=360n
XI159 RED REDB VSS DBR1 LDB VNW / txgate_lvtx pm=2 p_w=360n nm=2 n_w=360n
XI165 REDB RED VSS BWBR0 LBWM VNW / txgate_lvtx pm=2 p_w=360n nm=2 n_w=360n
XI164 REDB RED VSS DBR0 LDB VNW / txgate_lvtx pm=2 p_w=360n nm=2 n_w=360n
XI147 VSS VSS DBR0 GD PWR VNW / inv_lvtx nm=2 n_w=360n pm=2 p_w=540n
XI146 VSS VSS BWBR0 GBW PWR VNW / inv_lvtx nm=2 n_w=360n pm=2 p_w=540n
XI179 VSS VSS REDB RED PWR VNW / inv pm=1 p_w=360n nm=1 n_w=240n
XI173 VSS VSS RPOUT REDB PWR VNW / inv pm=1 p_w=360n nm=1 n_w=240n
XI167 VSS VSS RPIN net0104 PWR VNW / inv pm=1 p_w=360n nm=1 n_w=240n
XI181 VNW PWR BADB DBR0 / pch nf=1 w=240n m=1
XI180 VNW PWR BADB BWBR0 / pch nf=1 w=240n m=1
XI168 net0104 BADB VSS VSS PWR VNW RPOUT / nand2 pm=1 p_w=360n nm=1 n_w=480n
XI160 net0104 BADIO VSS VSS PWR VNW BADB / nand2 pm=1 p_w=360n nm=1 n_w=480n
XI191 PREOUT PREOUTS RED REDB VSS VSS PWR VNW PREOUTQ / mux21
.ENDS

.SUBCKT red_gio4 BADIO BWBR0 BWBR1 DBR0 DBR1 GBW GD LBWM LDB PREOUT PREOUTQ 
+ PREOUTS PWR RPFEED[0] RPFEED[1] RPIN RPOUT VDDA VNW VSS
*.PININFO PREOUTQ:O BADIO:B BWBR0:B BWBR1:B DBR0:B DBR1:B GBW:B GD:B LBWM:B 
*.PININFO LDB:B PREOUT:B PREOUTS:B PWR:B RPFEED[0]:B RPFEED[1]:B RPIN:B 
*.PININFO RPOUT:B VDDA:B VNW:B VSS:B
Xred BADIO BWBR0 BWBR1 DBR0 DBR1 GBW GD LBWM LDB PREOUT PREOUTQ PREOUTS PWR 
+ RPFEED[0] RPFEED[1] RPIN RPOUT VDDA VNW VSS / red_gio
.ENDS

.SUBCKT nor2 A B G Gb P Pb Y
*.PININFO A:I B:I Y:O G:B Gb:B P:B Pb:B
XP1 Pb P B net12 / pch nf=1 w=p_w m=pm
XP0 Pb net12 A Y / pch nf=1 w=p_w m=pm
XN0 Gb Y A G / nch nf=1 w=n_w m=nm
XN1 Gb Y B G / nch nf=1 w=n_w m=nm
.ENDS

.SUBCKT gcsmx4 CS[0] CS[1] CS[2] CS[3] GBW GD GRD0[0] GRD0[1] GRD0[2] GRD0[3] 
+ GRD1[0] GRD1[1] GRD1[2] GRD1[3] GRD2[0] GRD2[1] GRD2[2] GRD2[3] GRD3[0] 
+ GRD3[1] GRD3[2] GRD3[3] PWR Q0 QB0 QB1 QB2 QB3 VDDA VNW VSS
*.PININFO CS[0]:B CS[1]:B CS[2]:B CS[3]:B GBW:B GD:B GRD0[0]:B GRD0[1]:B 
*.PININFO GRD0[2]:B GRD0[3]:B GRD1[0]:B GRD1[1]:B GRD1[2]:B GRD1[3]:B 
*.PININFO GRD2[0]:B GRD2[1]:B GRD2[2]:B GRD2[3]:B GRD3[0]:B GRD3[1]:B 
*.PININFO GRD3[2]:B GRD3[3]:B PWR:B Q0:B QB0:B QB1:B QB2:B QB3:B VDDA:B VNW:B 
*.PININFO VSS:B
XI177 QB0 QB1 CS[1] CS[0] VSS VSS PWR VNW net013 / mux21
XI178 QB2 QB3 CS[3] CS[2] VSS VSS PWR VNW net012 / mux21
XI179 net012 net013 VSS VSS PWR VNW Q0 / nor2 nm=1 n_w=400n pm=1 p_w=800n
.ENDS

.SUBCKT gcsmx_edge CS[0] CS[1] CS[2] CS[3] PWR VDDA VNW VSS
*.PININFO CS[0]:B CS[1]:B CS[2]:B CS[3]:B PWR:B VDDA:B VNW:B VSS:B
.ENDS

.SUBCKT grdmx_edge BS[0] BS[1] BS[2] BS[3] PWR VDDA VNW VSS
*.PININFO BS[0]:B BS[1]:B BS[2]:B BS[3]:B PWR:B VDDA:B VNW:B VSS:B
.ENDS

.SUBCKT nored_gio1 BADIO BWBR0 BWBR1 DBR0 DBR1 LBWM LDB PREOUT PREOUTS PWR  
+ RPFEED[0] RPFEED[1] RPIN RPOUT VDDA VNW VSS
*.PININFO BADIO:B BWBR0:B BWBR1:B DBR0:B DBR1:B LBWM:B LDB:B PREOUT:B 
*.PININFO PREOUTS:B PWR:B QB0:B RPFEED[0]:B RPFEED[1]:B RPIN:B RPOUT:B VDDA:B 
*.PININFO VNW:B VSS:B
.ENDS

.SUBCKT inv_lvt G Gb IN OUT P Pb
*.PININFO IN:I OUT:O G:B Gb:B P:B Pb:B
XI4 Gb OUT IN G / nch_lvt nf=1 w=n_w m=nm
XI7 Pb P IN OUT / pch_lvt nf=1 w=p_w m=pm
.ENDS

.SUBCKT gio_rebuf LCLKIO LCLKIOI PWR SWT SWTI TE TEI VDDA VNW VSS
*.PININFO LCLKIO:B LCLKIOI:B PWR:B SWT:B SWTI:B TE:B TEI:B VDDA:B VNW:B VSS:B
XI20 VSS VSS TEI net032 PWR VNW / inv_lvt pm=1 p_w=480n nm=1 n_w=240n
XI19 VSS VSS net032 TE PWR VNW / inv_lvt pm=2 p_w=960n nm=2 n_w=480n
XI11 VSS VSS net033 LCLKIO PWR VNW / inv_lvt pm=4 p_w=960n nm=4 n_w=480n
XI25 VSS VSS net035 SWT PWR VNW / inv_lvt pm=2 p_w=960n nm=2 n_w=480n
XI26 VSS VSS SWTI net035 PWR VNW / inv_lvt pm=1 p_w=480n nm=1 n_w=240n
XI12 VSS VSS LCLKIOI net033 PWR VNW / inv_lvt pm=2 p_w=480n nm=2 n_w=240n
.ENDS

.SUBCKT nored_gio2 BADIO BWBR0 BWBR1 DBR0 DBR1 LBWM LDB PREOUT PREOUTQ PREOUTS 
+ PWR RPFEED[0] RPFEED[1] RPIN RPOUT VDDA VNW VSS
*.PININFO BADIO:B BWBR0:B BWBR1:B DBR0:B DBR1:B LBWM:B LDB:B PREOUT:B 
*.PININFO PREOUTQ:B PREOUTS:B PWR:B RPFEED[0]:B RPFEED[1]:B RPIN:B RPOUT:B 
*.PININFO VDDA:B VNW:B VSS:B
.ENDS

.SUBCKT nored_gio_rebuf BWBR0 BWBR1 DBR0 DBR1 PREOUT PREOUTS PWR RPFEED[0] 
+ RPFEED[1] RPIN RPOUT VDDA VNW VSS
*.PININFO BWBR0:B BWBR1:B DBR0:B DBR1:B PREOUT:B PREOUTS:B PWR:B RPFEED[0]:B 
*.PININFO RPFEED[1]:B RPIN:B RPOUT:B VDDA:B VNW:B VSS:B
.ENDS

.SUBCKT nored_gio4 BADIO BWBR0 BWBR1 DBR0 DBR1 LBWM LDB PREOUT PREOUTQ PREOUTS 
+ PWR RPFEED[0] RPFEED[1] RPIN RPOUT VDDA VNW VSS
*.PININFO BADIO:B BWBR0:B BWBR1:B DBR0:B DBR1:B LBWM:B LDB:B PREOUT:B 
*.PININFO PREOUTQ:B PREOUTS:B PWR:B RPFEED[0]:B RPFEED[1]:B RPIN:B RPOUT:B 
*.PININFO VDDA:B VNW:B VSS:B
.ENDS

.SUBCKT red_gio_edge BWBR0 BWBR1 DBR0 DBR1 PREOUT PREOUTS PWR RPFEED[0] 
+ RPFEED[1] RPIN RPOUT VDDA VNW VSS
*.PININFO BWBR0:B BWBR1:B DBR0:B DBR1:B PREOUT:B PREOUTS:B PWR:B RPFEED[0]:B 
*.PININFO RPFEED[1]:B RPIN:B RPOUT:B VDDA:B VNW:B VSS:B
.ENDS

.SUBCKT gcsmx_rebuf CS[0] CS[1] CS[2] CS[3] CSI[0] CSI[1] CSI[2] CSI[3] PWR 
+ VDDA VNW VSS
*.PININFO CS[0]:B CS[1]:B CS[2]:B CS[3]:B CSI[0]:B CSI[1]:B CSI[2]:B CSI[3]:B 
*.PININFO PWR:B VDDA:B VNW:B VSS:B
XI12[0] VSS VSS CSI[0] net027[0] PWR VNW / inv_lvt pm=2 p_w=480n nm=2 n_w=240n
XI12[1] VSS VSS CSI[1] net027[1] PWR VNW / inv_lvt pm=2 p_w=480n nm=2 n_w=240n
XI12[2] VSS VSS CSI[2] net027[2] PWR VNW / inv_lvt pm=2 p_w=480n nm=2 n_w=240n
XI12[3] VSS VSS CSI[3] net027[3] PWR VNW / inv_lvt pm=2 p_w=480n nm=2 n_w=240n
XI11[0] VSS VSS net027[0] CS[0] PWR VNW / inv_lvt pm=4 p_w=960n nm=4 n_w=480n
XI11[1] VSS VSS net027[1] CS[1] PWR VNW / inv_lvt pm=4 p_w=960n nm=4 n_w=480n
XI11[2] VSS VSS net027[2] CS[2] PWR VNW / inv_lvt pm=4 p_w=960n nm=4 n_w=480n
XI11[3] VSS VSS net027[3] CS[3] PWR VNW / inv_lvt pm=4 p_w=960n nm=4 n_w=480n
.ENDS

.SUBCKT grdmx_rebuf BS[0] BS[1] BS[2] BS[3] BSI[0] BSI[1] BSI[2] BSI[3] PWR 
+ VDDA VNW VSS
*.PININFO BS[0]:B BS[1]:B BS[2]:B BS[3]:B BSI[0]:B BSI[1]:B BSI[2]:B BSI[3]:B 
*.PININFO PWR:B VDDA:B VNW:B VSS:B
XI12[0] VSS VSS BSI[0] net027[0] PWR VNW / inv_lvt pm=2 p_w=480n nm=2 n_w=240n
XI12[1] VSS VSS BSI[1] net027[1] PWR VNW / inv_lvt pm=2 p_w=480n nm=2 n_w=240n
XI12[2] VSS VSS BSI[2] net027[2] PWR VNW / inv_lvt pm=2 p_w=480n nm=2 n_w=240n
XI12[3] VSS VSS BSI[3] net027[3] PWR VNW / inv_lvt pm=2 p_w=480n nm=2 n_w=240n
XI11[0] VSS VSS net027[0] BS[0] PWR VNW / inv_lvt pm=4 p_w=960n nm=4 n_w=480n
XI11[1] VSS VSS net027[1] BS[1] PWR VNW / inv_lvt pm=4 p_w=960n nm=4 n_w=480n
XI11[2] VSS VSS net027[2] BS[2] PWR VNW / inv_lvt pm=4 p_w=960n nm=4 n_w=480n
XI11[3] VSS VSS net027[3] BS[3] PWR VNW / inv_lvt pm=4 p_w=960n nm=4 n_w=480n
.ENDS

.SUBCKT redgio_rebuf BWBR0 BWBR1 DBR0 DBR1 PREOUT PREOUTS PWR RPFEED[0] 
+ RPFEED[1] RPIN RPOUT VDDA VNW VSS
*.PININFO BWBR0:B BWBR1:B DBR0:B DBR1:B PREOUT:B PREOUTS:B PWR:B RPFEED[0]:B 
*.PININFO RPFEED[1]:B RPIN:B RPOUT:B VDDA:B VNW:B VSS:B
.ENDS

.SUBCKT nored_gio_edge BWBR0 BWBR1 DBR0 DBR1 PREOUT PREOUTS PWR RPFEED[0] 
+ RPFEED[1] RPIN RPOUT VDDA VNW VSS
*.PININFO BWBR0:B BWBR1:B DBR0:B DBR1:B PREOUT:B PREOUTS:B PWR:B RPFEED[0]:B 
*.PININFO RPFEED[1]:B RPIN:B RPOUT:B VDDA:B VNW:B VSS:B
.ENDS

.SUBCKT grdmx4to1 BS[0] BS[1] BS[2] BS[3] GRDB[0] GRDB[1] GRDB[2] GRDB[3] PWR 
+ QB VNW VSS
*.PININFO BS[0]:B BS[1]:B BS[2]:B BS[3]:B GRDB[0]:B GRDB[1]:B GRDB[2]:B 
*.PININFO GRDB[3]:B PWR:B QB:B VNW:B VSS:B
XI177 GRDB[0] GRDB[1] BS[1] BS[0] VSS VSS PWR VNW net017 / mux21
XI178 GRDB[2] GRDB[3] BS[3] BS[2] VSS VSS PWR VNW net016 / mux21
XI179 net016 net017 VSS VSS PWR VNW QB / nor2 nm=1 n_w=400n pm=1 p_w=800n
.ENDS

.SUBCKT grdmx4 BS[0] BS[1] BS[2] BS[3] GBW GD GRD0[0] GRD0[1] GRD0[2] GRD0[3] 
+ GRD1[0] GRD1[1] GRD1[2] GRD1[3] GRD2[0] GRD2[1] GRD2[2] GRD2[3] GRD3[0] 
+ GRD3[1] GRD3[2] GRD3[3] PWR QB0 QB1 QB2 QB3 VDDA VNW VSS
*.PININFO BS[0]:B BS[1]:B BS[2]:B BS[3]:B GBW:B GD:B GRD0[0]:B GRD0[1]:B 
*.PININFO GRD0[2]:B GRD0[3]:B GRD1[0]:B GRD1[1]:B GRD1[2]:B GRD1[3]:B 
*.PININFO GRD2[0]:B GRD2[1]:B GRD2[2]:B GRD2[3]:B GRD3[0]:B GRD3[1]:B 
*.PININFO GRD3[2]:B GRD3[3]:B PWR:B QB0:B QB1:B QB2:B QB3:B VDDA:B VNW:B VSS:B
XI0 BS[0] BS[1] BS[2] BS[3] GRD0[0] GRD0[1] GRD0[2] GRD0[3] PWR QB0 VNW VSS / 
+ grdmx4to1
XI2 BS[0] BS[1] BS[2] BS[3] GRD2[0] GRD2[1] GRD2[2] GRD2[3] PWR QB2 VNW VSS / 
+ grdmx4to1
XI3 BS[0] BS[1] BS[2] BS[3] GRD3[0] GRD3[1] GRD3[2] GRD3[3] PWR QB3 VNW VSS / 
+ grdmx4to1
XI1 BS[0] BS[1] BS[2] BS[3] GRD1[0] GRD1[1] GRD1[2] GRD1[3] PWR QB1 VNW VSS / 
+ grdmx4to1
.ENDS

.SUBCKT gio4 BADIO BWM D LBWM LBWMB LCLKIO LDB LD PREOUTQ PWR Q SWT TBWM TD TE VDDA VNW 
+ VSS
*.PININFO BWM:I D:I TBWM:I TD:I Q:O BADIO:B LBWM:B LCLKIO:B LDB:B PREOUTQ:B 
*.PININFO PWR:B SWT:B TE:B VDDA:B VNW:B VSS:B
XXGIO BADIO BWM D LBWM LBWMB  LCLKIO LDB LD PREOUTQ PWR Q SWT TBWM TD TE VDDA VNW VSS / 
+ gio
.ENDS

.SUBCKT red_gio2 BADIO BWBR0 BWBR1 DBR0 DBR1 GBW GD LBWM LDB PREOUT PREOUTQ 
+ PREOUTS PWR RPFEED[0] RPFEED[1] RPIN RPOUT VDDA VNW VSS
*.PININFO GBW:O GD:O PREOUTQ:O BADIO:B BWBR0:B BWBR1:B DBR0:B DBR1:B LBWM:B 
*.PININFO LDB:B PREOUT:B PREOUTS:B PWR:B RPFEED[0]:B RPFEED[1]:B RPIN:B 
*.PININFO RPOUT:B VDDA:B VNW:B VSS:B
Xred BADIO BWBR0 BWBR1 DBR0 DBR1 GBW GD LBWM LDB PREOUT PREOUTQ PREOUTS PWR 
+ RPFEED[0] RPFEED[1] RPIN RPOUT VDDA VNW VSS / red_gio
.ENDS

.SUBCKT gcsmx2 CS[0] CS[1] CS[2] CS[3] GBW GD GRD0[0] GRD0[1] GRD0[2] GRD0[3] 
+ GRD1[0] GRD1[1] GRD1[2] GRD1[3] PWR Q0 QB0 QB1 VDDA VNW VSS
*.PININFO CS[0]:B CS[1]:B CS[2]:B CS[3]:B GBW:B GD:B GRD0[0]:B GRD0[1]:B 
*.PININFO GRD0[2]:B GRD0[3]:B GRD1[0]:B GRD1[1]:B GRD1[2]:B GRD1[3]:B PWR:B 
*.PININFO Q0:B QB0:B QB1:B VDDA:B VNW:B VSS:B
XI177 VSS VSS net09 Q0 PWR VNW / inv_svt nm=1 n_w=400n pm=1 p_w=800n
XI175 QB0 QB1 CS[1] CS[0] VSS VSS PWR VNW net09 / mux21
.ENDS

.SUBCKT grdmx2 BS[0] BS[1] BS[2] BS[3] GBW GD GRD0[0] GRD0[1] GRD0[2] GRD0[3] 
+ GRD1[0] GRD1[1] GRD1[2] GRD1[3] PWR QB0 QB1 VDDA VNW VSS
*.PININFO BS[0]:B BS[1]:B BS[2]:B BS[3]:B GBW:B GD:B GRD0[0]:B GRD0[1]:B 
*.PININFO GRD0[2]:B GRD0[3]:B GRD1[0]:B GRD1[1]:B GRD1[2]:B GRD1[3]:B PWR:B 
*.PININFO QB0:B QB1:B VDDA:B VNW:B VSS:B
XI0 BS[0] BS[1] BS[2] BS[3] GRD0[0] GRD0[1] GRD0[2] GRD0[3] PWR QB0 VNW VSS / 
+ grdmx4to1
XI1 BS[0] BS[1] BS[2] BS[3] GRD1[0] GRD1[1] GRD1[2] GRD1[3] PWR QB1 VNW VSS / 
+ grdmx4to1
.ENDS

.SUBCKT grdmx2_bk2 BS[0] BS[1] BS[2] BS[3] GBW GD GRD0[0] GRD0[1] GRD0[2] GRD0[3]
+ GRD1[0] GRD1[1] GRD1[2] GRD1[3] PWR QB0 QB1 VDDA VNW VSS
*.PININFO BS[0]:B BS[1]:B BS[2]:B BS[3]:B GBW:B GD:B GRD0[0]:B GRD0[1]:B 
*.PININFO GRD0[2]:B GRD0[3]:B GRD1[0]:B GRD1[1]:B GRD1[2]:B GRD1[3]:B PWR:B 
*.PININFO QB0:B QB1:B VDDA:B VNW:B VSS:B
.ENDS

.SUBCKT gio1 BADIO BWM D LBWM LBWMB LCLKIO LDB LD PREOUTQ PWR Q SWT TBWM TD TE VDDA VNW 
+ VSS
*.PININFO BWM:I D:I TBWM:I TD:I Q:O BADIO:B LBWM:B LCLKIO:B LDB:B PREOUTQ:B 
*.PININFO PWR:B SWT:B TE:B VDDA:B VNW:B VSS:B
XXGIO BADIO BWM D LBWM LBWMB LCLKIO LDB LD PREOUTQ PWR Q SWT TBWM TD TE VDDA VNW VSS / 
+ gio
.ENDS

.SUBCKT red_gio1 BADIO BWBR0 BWBR1 DBR0 DBR1 GBW GD LBWM LDB PREOUT PREOUTQ 
+ PREOUTS PWR RPFEED[0] RPFEED[1] RPIN RPOUT VDDA VNW VSS
*.PININFO GBW:O GD:O PREOUTQ:O BADIO:B BWBR0:B BWBR1:B DBR0:B DBR1:B LBWM:B 
*.PININFO LDB:B PREOUT:B PREOUTS:B PWR:B RPFEED[0]:B RPFEED[1]:B RPIN:B 
*.PININFO RPOUT:B VDDA:B VNW:B VSS:B
Xred BADIO BWBR0 BWBR1 DBR0 DBR1 GBW GD LBWM LDB PREOUT PREOUTQ PREOUTS PWR 
+ RPFEED[0] RPFEED[1] RPIN RPOUT VDDA VNW VSS / red_gio
.ENDS

.SUBCKT gcsmx1_bk4 CS[0] CS[1] CS[2] CS[3] GBW GD GRD0[0] GRD0[1] GRD0[2] GRD0[3]
+ PWR Q0 QB0 VDDA VNW VSS
*.PININFO CS[0]:B CS[1]:B CS[2]:B CS[3]:B GBW:B GD:B GRD0[0]:B GRD0[1]:B 
*.PININFO GRD0[2]:B GRD0[3]:B PWR:B Q0:B QB0:B VDDA:B VNW:B VSS:B
.ENDS

.SUBCKT gcsmx1 CS[0] CS[1] CS[2] CS[3] GBW GD GRD0[0] GRD0[1] GRD0[2] GRD0[3]
+ PWR Q0 QB0 VDDA VNW VSS
*.PININFO CS[0]:B CS[1]:B CS[2]:B CS[3]:B GBW:B GD:B GRD0[0]:B GRD0[1]:B 
*.PININFO GRD0[2]:B GRD0[3]:B PWR:B Q0:B QB0:B VDDA:B VNW:B VSS:B
XI178 VSS VSS QB0 net012 PWR VNW / inv_svt nm=1 n_w=240n pm=1 p_w=360n
XI179 VSS VSS net012 Q0 PWR VNW / inv_svt nm=1 n_w=400n pm=1 p_w=800n
.ENDS

.SUBCKT gcsmx1_bk2 CS[0] CS[1] CS[2] CS[3] GBW GD GRD0[0] GRD0[1] GRD0[2] GRD0[3]
+ PWR Q0 QB0 VDDA VNW VSS
*.PININFO CS[0]:B CS[1]:B CS[2]:B CS[3]:B GBW:B GD:B GRD0[0]:B GRD0[1]:B 
*.PININFO GRD0[2]:B GRD0[3]:B PWR:B Q0:B QB0:B VDDA:B VNW:B VSS:B
XI178 VSS VSS QB0 net012 PWR VNW / inv_svt nm=1 n_w=240n pm=1 p_w=360n
XI179 VSS VSS net012 Q0 PWR VNW / inv_svt nm=1 n_w=400n pm=1 p_w=800n
.ENDS

.SUBCKT grdmx1_bk2 BS[0] BS[1] BS[2] BS[3] GBW GD GRD0[0] GRD0[1] GRD0[2] GRD0[3]
+ PWR QB0 VDDA VNW VSS
*.PININFO BS[0]:B BS[1]:B BS[2]:B BS[3]:B GBW:B GD:B GRD0[0]:B GRD0[1]:B 
*.PININFO GRD0[2]:B GRD0[3]:B PWR:B QB0:B VDDA:B VNW:B VSS:B
.ENDS

.SUBCKT grdmx1 BS[0] BS[1] BS[2] BS[3] GBW GD GRD0[0] GRD0[1] GRD0[2] GRD0[3] 
+ PWR QB0 VDDA VNW VSS
*.PININFO BS[0]:B BS[1]:B BS[2]:B BS[3]:B GBW:B GD:B GRD0[0]:B GRD0[1]:B 
*.PININFO GRD0[2]:B GRD0[3]:B PWR:B QB0:B VDDA:B VNW:B VSS:B
XI0 BS[0] BS[1] BS[2] BS[3] GRD0[0] GRD0[1] GRD0[2] GRD0[3] PWR QB0 VNW VSS / 
+ grdmx4to1
.ENDS

.SUBCKT floorplan_gio_red
*.PININFO
XI42 net0612 net0346 net0347 net0497 net0349 net0357 net0351 net0365 net0620 
+ net0588 net0356 net0355 net0552 net0362 net0560 net0363 / gio2
XI26 net0148 net0133 net0134 net0238 net0136 net0144 net0138 net0152 net0135 
+ net0140 net0143 net0142 net0139 net0149 net0154 net0150 / gio2
XI57 net0686 net0774 net0624 net0818 net0804 net0819 net0592 / gio_edge
XI50 net0731 net0704 net0712 net0730 net0653 net0683 net0721 / gio_edge
XI31 net0243 net012 net0747 net0245 net010 net011 net09 / gio_edge
XI3 net0675 net12 net0633 net0710 net10 net11 net9 / gio_edge
XI39 net0266 net0265 net0508 net0574 net0543 net0269 net0271 net0659 net0493 
+ net0263 net0507 net0603 net0270 net0261[0] net0261[1] net0262 net0526 
+ net0604 net0272 net0268 / red_gio4
XI29 net0215 net0214 net0209 net0213 net0208 net0218 net0220 net0700 net0203 
+ net0212 net0204 net0207 net0219 net0210[0] net0210[1] net0211 net0206 
+ net0216 net0221 net0217 / red_gio4
XI40 net0580[0] net0580[1] net0580[2] net0580[3] net0301 net0303 net0836[0] 
+ net0836[1] net0836[2] net0836[3] net0785[0] net0785[1] net0785[2] net0785[3] 
+ net0861[0] net0861[1] net0861[2] net0861[3] net0857[0] net0857[1] net0857[2] 
+ net0857[3] net0577 net0293 net0294 net0296 net0292 net0299 net0297 net0298 
+ net0610 / gcsmx4
XI28 net0225[0] net0225[1] net0225[2] net0225[3] net0231 net0233 net0156[0] 
+ net0156[1] net0156[2] net0156[3] net0155[0] net0155[1] net0155[2] net0155[3] 
+ net0707[0] net0707[1] net0707[2] net0707[3] net0864[0] net0864[1] net0864[2] 
+ net0864[3] net0232 net0224 net0226 net0227 net0222 net0223 net0228 net0229 
+ net0230 / gcsmx4
XI56 net0194[0] net0194[1] net0194[2] net0194[3] net0651 net0771 net0763 
+ net0668 / gcsmx_edge
XI52 net0585[0] net0585[1] net0585[2] net0585[3] net0749 net0696 net0681 
+ net0755 / gcsmx_edge
XI55 net0770[0] net0770[1] net0770[2] net0770[3] net0714 net0679 net0619 
+ net0205 / grdmx_edge
XI53 net0541[0] net0541[1] net0541[2] net0541[3] net0703 net0706 net0740 
+ net0693 / grdmx_edge
XI67 net0163 net0162 net0157 net0918 net0859 net0153 net0151 net0708 net0719 
+ net0664  net0158[0] net0158[1] net0159 net0784 net0164 net0926 
+ net0165 / nored_gio1
XI63 net0899 net0775 net0939 net0180 net0906 net0892 net0759 net0179 net0174 
+ net0932  net0879[0] net0879[1] net0178 net0813 net0723 net0739 
+ net0911 / nored_gio1
XI32 net0307 net0317 net0302 net0324 net0341 net032 net0334 net0327 net0264 
+ net0331 / gio_rebuf
XI66 net0845 net0858 net0843 net0934 net0713 net0201 net0199 net0888 net0872 
+ net0779 net0938 net0800[0] net0800[1] net0922 net0743 net0920 net0936 
+ net0750 / nored_gio2
XI62 net0931 net0684 net0908 net0678 net0876 net0769 net0937 net0873 net0807 
+ net0838 net0778 net0662[0] net0662[1] net0912 net0916 net0895 net0236 
+ net0913 / nored_gio2
XI59 net0941 net0237 net0720 net0889 net0919 net0239 net0244 net0887[0] 
+ net0887[1] net0930 net0240 net0241 net0853 net0242 / nored_gio_rebuf
XI65 net0890 net0902 net0921 net0733 net0904 net0815 net0901 net0886 net0897 
+ net0698 net0871 net0773[0] net0773[1] net0910 net0687 net0842 net0741 
+ net0877 / nored_gio4
XI60 net0281 net0280 net0275 net0279 net0940 net0928 net0725 net0278 net0933 
+ net0273 net0285 net0276[0] net0276[1] net0277 net0776 net0865 net0287 
+ net0283 / nored_gio4
XI54 net0680 net0823 net0601 net0822 net0791 net0801 net0780 net0658[0] 
+ net0658[1] net0821 net0832 net0809 net0722 net0829 / red_gio_edge
XI51 net0566 net0715 net0728 net0760 net0746 net0555 net0661 net0729[0] 
+ net0729[1] net0716 net0554 net0689 net0754 net0692 / red_gio_edge
XI34 net014[0] net014[1] net014[2] net014[3] net013[0] net013[1] net013[2] 
+ net013[3] net018 net016 net017 net015 / gcsmx_rebuf
XI58 net0837[0] net0837[1] net0837[2] net0837[3] net0599[0] net0599[1] 
+ net0599[2] net0599[3] net0234 net0812 net0764 net0757 / grdmx_rebuf
XI35 net04[0] net04[1] net04[2] net04[3] net01[0] net01[1] net01[2] net01[3] 
+ net06 net03 net05 net02 / grdmx_rebuf
XI0 net4[0] net4[1] net4[2] net4[3] net1[0] net1[1] net1[2] net1[3] net6 net3 
+ net5 net2 / grdmx_rebuf
XI33 net0635 net0753 net056 net0611 net055 net0820 net061 net058[0] net058[1] 
+ net054 net0781 net0756 net053 net052 / redgio_rebuf
XI64 net0359 net0354 net0924 net0896 net0718 net0352 net0717 net0833[0] 
+ net0833[1] net0758 net0847 net0795 net0826 net0917 / nored_gio_edge
XI61 net0372 net0841 net0929 net0915 net0370 net0893 net0835 net0669[0] 
+ net0669[1] net0369 net0806 net0373 net0376 net0935 / nored_gio_edge
XI41 net0320[0] net0320[1] net0320[2] net0320[3] net0607 net0330 net0595[0] 
+ net0595[1] net0595[2] net0595[3] net0326[0] net0326[1] net0326[2] net0326[3] 
+ net0553[0] net0553[1] net0553[2] net0553[3] net0319[0] net0319[1] net0319[2] 
+ net0319[3] net0329 net0581 net0321 net0316 net0325 net0322 net0597 net0501 / 
+ grdmx4
XI36 net0250[0] net0250[1] net0250[2] net0250[3] net0258 net0260 net0254[0] 
+ net0254[1] net0254[2] net0254[3] net0256[0] net0256[1] net0256[2] net0256[3] 
+ net0247[0] net0247[1] net0247[2] net0247[3] net0249[0] net0249[1] net0249[2] 
+ net0249[3] net0259 net0248 net0251 net0246 net0255 net0252 net0253 net0257 / 
+ grdmx4
XI38 net0449 net0434 net0435 net0671 net0437 net0445 net0439 net0453 net0436 
+ net0441 net0444 net0443 net0440 net0450 net0455 net0451 / gio4
XI30 net0196 net0181 net0182 net0682 net0184 net0192 net0186 net0200 net0183 
+ net0188 net0191 net0190 net0187 net0197 net0202 net0198 / gio4
XI43 net0576 net0583 net0598 net0485 net0600 net0593 net0548 net0371 net086 
+ net0589 net087 net0586 net0531 net0519[0] net0519[1] net0534 net089 net0490 
+ net0606 net0528 / red_gio2
XI25 net045 net044 net039 net043 net038 net048 net050 net0282 net033 net042 
+ net034 net037 net049 net040[0] net040[1] net041 net036 net046 net051 net047 
+ / red_gio2
XI44 net0125[0] net0125[1] net0125[2] net0125[3] net0131 net0510 net0375[0] 
+ net0375[1] net0375[2] net0375[3] net0374[0] net0374[1] net0374[2] net0374[3] 
+ net0132 net0480 net0126 net0127 net0128 net0129 net0130 / gcsmx2
XI24 net0120[0] net0120[1] net0120[2] net0120[3] net0122 net0124 net0387[0] 
+ net0387[1] net0387[2] net0387[3] net0386[0] net0386[1] net0386[2] net0386[3] 
+ net0123 net0160 net0117 net0161 net0118 net0119 net0121 / gcsmx2